
---------- Begin Simulation Statistics ----------
simSeconds                                   0.236600                       # Number of seconds simulated (Second)
simTicks                                 236600229000                       # Number of ticks simulated (Tick)
finalTick                                236600229000                       # Number of ticks from beginning of simulation (restored from checkpoints and never reset) (Tick)
simFreq                                  1000000000000                       # The number of ticks per simulated second ((Tick/Second))
hostSeconds                                     72.87                       # Real time elapsed on the host (Second)
hostTickRate                               3246727015                       # The number of ticks simulated per host second (ticks/s) ((Tick/Second))
hostMemory                                     649660                       # Number of bytes of host memory used (Byte)
simInsts                                     40323581                       # Number of instructions simulated (Count)
simOps                                       70313962                       # Number of ops (including micro ops) simulated (Count)
hostInstRate                                   553336                       # Simulator instruction rate (inst/s) ((Count/Second))
hostOpRate                                     964876                       # Simulator op (including micro ops) rate (op/s) ((Count/Second))
system.clk_domain.clock                          1000                       # Clock period in ticks (Tick)
system.clk_domain.voltage_domain.voltage            1                       # Voltage in Volts (Volt)
system.cpu.numCycles                        236600229                       # Number of cpu cycles simulated (Cycle)
system.cpu.numWorkItemsStarted                      0                       # Number of work items this cpu started (Count)
system.cpu.numWorkItemsCompleted                    0                       # Number of work items this cpu completed (Count)
system.cpu.dcache.demandHits::cpu.data       29428731                       # number of demand (read+write) hits (Count)
system.cpu.dcache.demandHits::total          29428731                       # number of demand (read+write) hits (Count)
system.cpu.dcache.overallHits::cpu.data      29428731                       # number of overall hits (Count)
system.cpu.dcache.overallHits::total         29428731                       # number of overall hits (Count)
system.cpu.dcache.demandMisses::cpu.data       716628                       # number of demand (read+write) misses (Count)
system.cpu.dcache.demandMisses::total          716628                       # number of demand (read+write) misses (Count)
system.cpu.dcache.overallMisses::cpu.data       716628                       # number of overall misses (Count)
system.cpu.dcache.overallMisses::total         716628                       # number of overall misses (Count)
system.cpu.dcache.demandMissLatency::cpu.data  72289613000                       # number of demand (read+write) miss ticks (Tick)
system.cpu.dcache.demandMissLatency::total  72289613000                       # number of demand (read+write) miss ticks (Tick)
system.cpu.dcache.overallMissLatency::cpu.data  72289613000                       # number of overall miss ticks (Tick)
system.cpu.dcache.overallMissLatency::total  72289613000                       # number of overall miss ticks (Tick)
system.cpu.dcache.demandAccesses::cpu.data     30145359                       # number of demand (read+write) accesses (Count)
system.cpu.dcache.demandAccesses::total      30145359                       # number of demand (read+write) accesses (Count)
system.cpu.dcache.overallAccesses::cpu.data     30145359                       # number of overall (read+write) accesses (Count)
system.cpu.dcache.overallAccesses::total     30145359                       # number of overall (read+write) accesses (Count)
system.cpu.dcache.demandMissRate::cpu.data     0.023772                       # miss rate for demand accesses (Ratio)
system.cpu.dcache.demandMissRate::total      0.023772                       # miss rate for demand accesses (Ratio)
system.cpu.dcache.overallMissRate::cpu.data     0.023772                       # miss rate for overall accesses (Ratio)
system.cpu.dcache.overallMissRate::total     0.023772                       # miss rate for overall accesses (Ratio)
system.cpu.dcache.demandAvgMissLatency::cpu.data 100874.669982                       # average overall miss latency in ticks ((Tick/Count))
system.cpu.dcache.demandAvgMissLatency::total 100874.669982                       # average overall miss latency in ticks ((Tick/Count))
system.cpu.dcache.overallAvgMissLatency::cpu.data 100874.669982                       # average overall miss latency ((Tick/Count))
system.cpu.dcache.overallAvgMissLatency::total 100874.669982                       # average overall miss latency ((Tick/Count))
system.cpu.dcache.blockedCycles::no_mshrs            0                       # number of cycles access was blocked (Cycle)
system.cpu.dcache.blockedCycles::no_targets            0                       # number of cycles access was blocked (Cycle)
system.cpu.dcache.blockedCauses::no_mshrs            0                       # number of times access was blocked (Count)
system.cpu.dcache.blockedCauses::no_targets            0                       # number of times access was blocked (Count)
system.cpu.dcache.avgBlocked::no_mshrs            nan                       # average number of cycles each access was blocked ((Cycle/Count))
system.cpu.dcache.avgBlocked::no_targets          nan                       # average number of cycles each access was blocked ((Cycle/Count))
system.cpu.dcache.writebacks::writebacks       700720                       # number of writebacks (Count)
system.cpu.dcache.writebacks::total            700720                       # number of writebacks (Count)
system.cpu.dcache.demandMshrMisses::cpu.data       716628                       # number of demand (read+write) MSHR misses (Count)
system.cpu.dcache.demandMshrMisses::total       716628                       # number of demand (read+write) MSHR misses (Count)
system.cpu.dcache.overallMshrMisses::cpu.data       716628                       # number of overall MSHR misses (Count)
system.cpu.dcache.overallMshrMisses::total       716628                       # number of overall MSHR misses (Count)
system.cpu.dcache.demandMshrMissLatency::cpu.data  70856357000                       # number of demand (read+write) MSHR miss ticks (Tick)
system.cpu.dcache.demandMshrMissLatency::total  70856357000                       # number of demand (read+write) MSHR miss ticks (Tick)
system.cpu.dcache.overallMshrMissLatency::cpu.data  70856357000                       # number of overall MSHR miss ticks (Tick)
system.cpu.dcache.overallMshrMissLatency::total  70856357000                       # number of overall MSHR miss ticks (Tick)
system.cpu.dcache.demandMshrMissRate::cpu.data     0.023772                       # mshr miss ratio for demand accesses (Ratio)
system.cpu.dcache.demandMshrMissRate::total     0.023772                       # mshr miss ratio for demand accesses (Ratio)
system.cpu.dcache.overallMshrMissRate::cpu.data     0.023772                       # mshr miss ratio for overall accesses (Ratio)
system.cpu.dcache.overallMshrMissRate::total     0.023772                       # mshr miss ratio for overall accesses (Ratio)
system.cpu.dcache.demandAvgMshrMissLatency::cpu.data 98874.669982                       # average overall mshr miss latency ((Tick/Count))
system.cpu.dcache.demandAvgMshrMissLatency::total 98874.669982                       # average overall mshr miss latency ((Tick/Count))
system.cpu.dcache.overallAvgMshrMissLatency::cpu.data 98874.669982                       # average overall mshr miss latency ((Tick/Count))
system.cpu.dcache.overallAvgMshrMissLatency::total 98874.669982                       # average overall mshr miss latency ((Tick/Count))
system.cpu.dcache.replacements                 715606                       # number of replacements (Count)
system.cpu.dcache.LockedRMWReadReq.hits::cpu.data           20                       # number of LockedRMWReadReq hits (Count)
system.cpu.dcache.LockedRMWReadReq.hits::total           20                       # number of LockedRMWReadReq hits (Count)
system.cpu.dcache.LockedRMWReadReq.misses::cpu.data            2                       # number of LockedRMWReadReq misses (Count)
system.cpu.dcache.LockedRMWReadReq.misses::total            2                       # number of LockedRMWReadReq misses (Count)
system.cpu.dcache.LockedRMWReadReq.missLatency::cpu.data       190000                       # number of LockedRMWReadReq miss ticks (Tick)
system.cpu.dcache.LockedRMWReadReq.missLatency::total       190000                       # number of LockedRMWReadReq miss ticks (Tick)
system.cpu.dcache.LockedRMWReadReq.accesses::cpu.data           22                       # number of LockedRMWReadReq accesses(hits+misses) (Count)
system.cpu.dcache.LockedRMWReadReq.accesses::total           22                       # number of LockedRMWReadReq accesses(hits+misses) (Count)
system.cpu.dcache.LockedRMWReadReq.missRate::cpu.data     0.090909                       # miss rate for LockedRMWReadReq accesses (Ratio)
system.cpu.dcache.LockedRMWReadReq.missRate::total     0.090909                       # miss rate for LockedRMWReadReq accesses (Ratio)
system.cpu.dcache.LockedRMWReadReq.avgMissLatency::cpu.data        95000                       # average LockedRMWReadReq miss latency ((Tick/Count))
system.cpu.dcache.LockedRMWReadReq.avgMissLatency::total        95000                       # average LockedRMWReadReq miss latency ((Tick/Count))
system.cpu.dcache.LockedRMWReadReq.mshrMisses::cpu.data            2                       # number of LockedRMWReadReq MSHR misses (Count)
system.cpu.dcache.LockedRMWReadReq.mshrMisses::total            2                       # number of LockedRMWReadReq MSHR misses (Count)
system.cpu.dcache.LockedRMWReadReq.mshrMissLatency::cpu.data       416000                       # number of LockedRMWReadReq MSHR miss ticks (Tick)
system.cpu.dcache.LockedRMWReadReq.mshrMissLatency::total       416000                       # number of LockedRMWReadReq MSHR miss ticks (Tick)
system.cpu.dcache.LockedRMWReadReq.mshrMissRate::cpu.data     0.090909                       # mshr miss rate for LockedRMWReadReq accesses (Ratio)
system.cpu.dcache.LockedRMWReadReq.mshrMissRate::total     0.090909                       # mshr miss rate for LockedRMWReadReq accesses (Ratio)
system.cpu.dcache.LockedRMWReadReq.avgMshrMissLatency::cpu.data       208000                       # average LockedRMWReadReq mshr miss latency ((Tick/Count))
system.cpu.dcache.LockedRMWReadReq.avgMshrMissLatency::total       208000                       # average LockedRMWReadReq mshr miss latency ((Tick/Count))
system.cpu.dcache.LockedRMWWriteReq.hits::cpu.data           22                       # number of LockedRMWWriteReq hits (Count)
system.cpu.dcache.LockedRMWWriteReq.hits::total           22                       # number of LockedRMWWriteReq hits (Count)
system.cpu.dcache.LockedRMWWriteReq.accesses::cpu.data           22                       # number of LockedRMWWriteReq accesses(hits+misses) (Count)
system.cpu.dcache.LockedRMWWriteReq.accesses::total           22                       # number of LockedRMWWriteReq accesses(hits+misses) (Count)
system.cpu.dcache.ReadReq.hits::cpu.data     22803540                       # number of ReadReq hits (Count)
system.cpu.dcache.ReadReq.hits::total        22803540                       # number of ReadReq hits (Count)
system.cpu.dcache.ReadReq.misses::cpu.data        15911                       # number of ReadReq misses (Count)
system.cpu.dcache.ReadReq.misses::total         15911                       # number of ReadReq misses (Count)
system.cpu.dcache.ReadReq.missLatency::cpu.data   2130446000                       # number of ReadReq miss ticks (Tick)
system.cpu.dcache.ReadReq.missLatency::total   2130446000                       # number of ReadReq miss ticks (Tick)
system.cpu.dcache.ReadReq.accesses::cpu.data     22819451                       # number of ReadReq accesses(hits+misses) (Count)
system.cpu.dcache.ReadReq.accesses::total     22819451                       # number of ReadReq accesses(hits+misses) (Count)
system.cpu.dcache.ReadReq.missRate::cpu.data     0.000697                       # miss rate for ReadReq accesses (Ratio)
system.cpu.dcache.ReadReq.missRate::total     0.000697                       # miss rate for ReadReq accesses (Ratio)
system.cpu.dcache.ReadReq.avgMissLatency::cpu.data 133897.680850                       # average ReadReq miss latency ((Tick/Count))
system.cpu.dcache.ReadReq.avgMissLatency::total 133897.680850                       # average ReadReq miss latency ((Tick/Count))
system.cpu.dcache.ReadReq.mshrMisses::cpu.data        15911                       # number of ReadReq MSHR misses (Count)
system.cpu.dcache.ReadReq.mshrMisses::total        15911                       # number of ReadReq MSHR misses (Count)
system.cpu.dcache.ReadReq.mshrMissLatency::cpu.data   2098624000                       # number of ReadReq MSHR miss ticks (Tick)
system.cpu.dcache.ReadReq.mshrMissLatency::total   2098624000                       # number of ReadReq MSHR miss ticks (Tick)
system.cpu.dcache.ReadReq.mshrMissRate::cpu.data     0.000697                       # mshr miss rate for ReadReq accesses (Ratio)
system.cpu.dcache.ReadReq.mshrMissRate::total     0.000697                       # mshr miss rate for ReadReq accesses (Ratio)
system.cpu.dcache.ReadReq.avgMshrMissLatency::cpu.data 131897.680850                       # average ReadReq mshr miss latency ((Tick/Count))
system.cpu.dcache.ReadReq.avgMshrMissLatency::total 131897.680850                       # average ReadReq mshr miss latency ((Tick/Count))
system.cpu.dcache.WriteReq.hits::cpu.data      6625191                       # number of WriteReq hits (Count)
system.cpu.dcache.WriteReq.hits::total        6625191                       # number of WriteReq hits (Count)
system.cpu.dcache.WriteReq.misses::cpu.data       700717                       # number of WriteReq misses (Count)
system.cpu.dcache.WriteReq.misses::total       700717                       # number of WriteReq misses (Count)
system.cpu.dcache.WriteReq.missLatency::cpu.data  70159167000                       # number of WriteReq miss ticks (Tick)
system.cpu.dcache.WriteReq.missLatency::total  70159167000                       # number of WriteReq miss ticks (Tick)
system.cpu.dcache.WriteReq.accesses::cpu.data      7325908                       # number of WriteReq accesses(hits+misses) (Count)
system.cpu.dcache.WriteReq.accesses::total      7325908                       # number of WriteReq accesses(hits+misses) (Count)
system.cpu.dcache.WriteReq.missRate::cpu.data     0.095649                       # miss rate for WriteReq accesses (Ratio)
system.cpu.dcache.WriteReq.missRate::total     0.095649                       # miss rate for WriteReq accesses (Ratio)
system.cpu.dcache.WriteReq.avgMissLatency::cpu.data 100124.825001                       # average WriteReq miss latency ((Tick/Count))
system.cpu.dcache.WriteReq.avgMissLatency::total 100124.825001                       # average WriteReq miss latency ((Tick/Count))
system.cpu.dcache.WriteReq.mshrMisses::cpu.data       700717                       # number of WriteReq MSHR misses (Count)
system.cpu.dcache.WriteReq.mshrMisses::total       700717                       # number of WriteReq MSHR misses (Count)
system.cpu.dcache.WriteReq.mshrMissLatency::cpu.data  68757733000                       # number of WriteReq MSHR miss ticks (Tick)
system.cpu.dcache.WriteReq.mshrMissLatency::total  68757733000                       # number of WriteReq MSHR miss ticks (Tick)
system.cpu.dcache.WriteReq.mshrMissRate::cpu.data     0.095649                       # mshr miss rate for WriteReq accesses (Ratio)
system.cpu.dcache.WriteReq.mshrMissRate::total     0.095649                       # mshr miss rate for WriteReq accesses (Ratio)
system.cpu.dcache.WriteReq.avgMshrMissLatency::cpu.data 98124.825001                       # average WriteReq mshr miss latency ((Tick/Count))
system.cpu.dcache.WriteReq.avgMshrMissLatency::total 98124.825001                       # average WriteReq mshr miss latency ((Tick/Count))
system.cpu.dcache.power_state.pwrStateResidencyTicks::UNDEFINED 236600229000                       # Cumulative time (in ticks) in various power states (Tick)
system.cpu.dcache.tags.tagsInUse          1019.743378                       # Average ticks per tags in use ((Tick/Count))
system.cpu.dcache.tags.totalRefs             30145403                       # Total number of references to valid blocks. (Count)
system.cpu.dcache.tags.sampledRefs             716630                       # Sample count of references to valid blocks. (Count)
system.cpu.dcache.tags.avgRefs              42.065505                       # Average number of references to valid blocks. ((Count/Count))
system.cpu.dcache.tags.warmupTick              224000                       # The tick when the warmup percentage was hit. (Tick)
system.cpu.dcache.tags.occupancies::cpu.data  1019.743378                       # Average occupied blocks per tick, per requestor ((Count/Tick))
system.cpu.dcache.tags.avgOccs::cpu.data     0.995843                       # Average percentage of cache occupancy ((Ratio/Tick))
system.cpu.dcache.tags.avgOccs::total        0.995843                       # Average percentage of cache occupancy ((Ratio/Tick))
system.cpu.dcache.tags.occupanciesTaskId::1024         1024                       # Occupied blocks per task id (Count)
system.cpu.dcache.tags.ageTaskId_1024::0           21                       # Occupied blocks per task id, per block age (Count)
system.cpu.dcache.tags.ageTaskId_1024::1           79                       # Occupied blocks per task id, per block age (Count)
system.cpu.dcache.tags.ageTaskId_1024::2          341                       # Occupied blocks per task id, per block age (Count)
system.cpu.dcache.tags.ageTaskId_1024::3          582                       # Occupied blocks per task id, per block age (Count)
system.cpu.dcache.tags.ageTaskId_1024::4            1                       # Occupied blocks per task id, per block age (Count)
system.cpu.dcache.tags.ratioOccsTaskId::1024            1                       # Ratio of occupied blocks and all blocks, per task id (Ratio)
system.cpu.dcache.tags.tagAccesses           61007436                       # Number of tag accesses (Count)
system.cpu.dcache.tags.dataAccesses          61007436                       # Number of data accesses (Count)
system.cpu.dcache.tags.power_state.pwrStateResidencyTicks::UNDEFINED 236600229000                       # Cumulative time (in ticks) in various power states (Tick)
system.cpu.exec_context.thread_0.numInsts     40323581                       # Number of instructions committed (Count)
system.cpu.exec_context.thread_0.numOps      70313962                       # Number of ops (including micro ops) committed (Count)
system.cpu.exec_context.thread_0.numIntAluAccesses     70313264                       # Number of integer alu accesses (Count)
system.cpu.exec_context.thread_0.numFpAluAccesses         1459                       # Number of float alu accesses (Count)
system.cpu.exec_context.thread_0.numVecAluAccesses            0                       # Number of vector alu accesses (Count)
system.cpu.exec_context.thread_0.numCallsReturns          411                       # Number of times a function call or return occured (Count)
system.cpu.exec_context.thread_0.numCondCtrlInsts      5125924                       # Number of instructions that are conditional controls (Count)
system.cpu.exec_context.thread_0.numIntInsts     70313264                       # Number of integer instructions (Count)
system.cpu.exec_context.thread_0.numFpInsts         1459                       # Number of float instructions (Count)
system.cpu.exec_context.thread_0.numVecInsts            0                       # Number of vector instructions (Count)
system.cpu.exec_context.thread_0.numIntRegReads     83892406                       # Number of times the integer registers were read (Count)
system.cpu.exec_context.thread_0.numIntRegWrites     52734480                       # Number of times the integer registers were written (Count)
system.cpu.exec_context.thread_0.numFpRegReads         1591                       # Number of times the floating registers were read (Count)
system.cpu.exec_context.thread_0.numFpRegWrites          850                       # Number of times the floating registers were written (Count)
system.cpu.exec_context.thread_0.numVecRegReads            0                       # Number of times the vector registers were read (Count)
system.cpu.exec_context.thread_0.numVecRegWrites            0                       # Number of times the vector registers were written (Count)
system.cpu.exec_context.thread_0.numVecPredRegReads            0                       # Number of times the predicate registers were read (Count)
system.cpu.exec_context.thread_0.numVecPredRegWrites            0                       # Number of times the predicate registers were written (Count)
system.cpu.exec_context.thread_0.numCCRegReads     26633646                       # Number of times the CC registers were read (Count)
system.cpu.exec_context.thread_0.numCCRegWrites     26906048                       # Number of times the CC registers were written (Count)
system.cpu.exec_context.thread_0.numMiscRegReads     40399281                       # Number of times the Misc registers were read (Count)
system.cpu.exec_context.thread_0.numMiscRegWrites            0                       # Number of times the Misc registers were written (Count)
system.cpu.exec_context.thread_0.numMemRefs     30145649                       # Number of memory refs (Count)
system.cpu.exec_context.thread_0.numLoadInsts     22819471                       # Number of load instructions (Count)
system.cpu.exec_context.thread_0.numStoreInsts      7326178                       # Number of store instructions (Count)
system.cpu.exec_context.thread_0.numIdleCycles     0.001000                       # Number of idle cycles (Cycle)
system.cpu.exec_context.thread_0.numBusyCycles 236600228.999000                       # Number of busy cycles (Cycle)
system.cpu.exec_context.thread_0.notIdleFraction     1.000000                       # Percentage of non-idle cycles (Ratio)
system.cpu.exec_context.thread_0.idleFraction     0.000000                       # Percentage of idle cycles (Ratio)
system.cpu.exec_context.thread_0.numBranches      5126708                       # Number of branches fetched (Count)
system.cpu.exec_context.thread_0.statExecutedInstType::No_OpClass          242      0.00%      0.00% # Class of executed instruction. (Count)
system.cpu.exec_context.thread_0.statExecutedInstType::IntAlu     40166535     57.12%     57.12% # Class of executed instruction. (Count)
system.cpu.exec_context.thread_0.statExecutedInstType::IntMult         1177      0.00%     57.13% # Class of executed instruction. (Count)
system.cpu.exec_context.thread_0.statExecutedInstType::IntDiv           28      0.00%     57.13% # Class of executed instruction. (Count)
system.cpu.exec_context.thread_0.statExecutedInstType::FloatAdd          185      0.00%     57.13% # Class of executed instruction. (Count)
system.cpu.exec_context.thread_0.statExecutedInstType::FloatCmp            0      0.00%     57.13% # Class of executed instruction. (Count)
system.cpu.exec_context.thread_0.statExecutedInstType::FloatCvt            0      0.00%     57.13% # Class of executed instruction. (Count)
system.cpu.exec_context.thread_0.statExecutedInstType::FloatMult            0      0.00%     57.13% # Class of executed instruction. (Count)
system.cpu.exec_context.thread_0.statExecutedInstType::FloatMultAcc            0      0.00%     57.13% # Class of executed instruction. (Count)
system.cpu.exec_context.thread_0.statExecutedInstType::FloatDiv            0      0.00%     57.13% # Class of executed instruction. (Count)
system.cpu.exec_context.thread_0.statExecutedInstType::FloatMisc            0      0.00%     57.13% # Class of executed instruction. (Count)
system.cpu.exec_context.thread_0.statExecutedInstType::FloatSqrt            0      0.00%     57.13% # Class of executed instruction. (Count)
system.cpu.exec_context.thread_0.statExecutedInstType::SimdAdd            8      0.00%     57.13% # Class of executed instruction. (Count)
system.cpu.exec_context.thread_0.statExecutedInstType::SimdAddAcc            0      0.00%     57.13% # Class of executed instruction. (Count)
system.cpu.exec_context.thread_0.statExecutedInstType::SimdAlu           98      0.00%     57.13% # Class of executed instruction. (Count)
system.cpu.exec_context.thread_0.statExecutedInstType::SimdCmp            0      0.00%     57.13% # Class of executed instruction. (Count)
system.cpu.exec_context.thread_0.statExecutedInstType::SimdCvt           54      0.00%     57.13% # Class of executed instruction. (Count)
system.cpu.exec_context.thread_0.statExecutedInstType::SimdMisc          254      0.00%     57.13% # Class of executed instruction. (Count)
system.cpu.exec_context.thread_0.statExecutedInstType::SimdMult            0      0.00%     57.13% # Class of executed instruction. (Count)
system.cpu.exec_context.thread_0.statExecutedInstType::SimdMultAcc            0      0.00%     57.13% # Class of executed instruction. (Count)
system.cpu.exec_context.thread_0.statExecutedInstType::SimdShift            0      0.00%     57.13% # Class of executed instruction. (Count)
system.cpu.exec_context.thread_0.statExecutedInstType::SimdShiftAcc            0      0.00%     57.13% # Class of executed instruction. (Count)
system.cpu.exec_context.thread_0.statExecutedInstType::SimdDiv            0      0.00%     57.13% # Class of executed instruction. (Count)
system.cpu.exec_context.thread_0.statExecutedInstType::SimdSqrt            0      0.00%     57.13% # Class of executed instruction. (Count)
system.cpu.exec_context.thread_0.statExecutedInstType::SimdFloatAdd            0      0.00%     57.13% # Class of executed instruction. (Count)
system.cpu.exec_context.thread_0.statExecutedInstType::SimdFloatAlu            0      0.00%     57.13% # Class of executed instruction. (Count)
system.cpu.exec_context.thread_0.statExecutedInstType::SimdFloatCmp            0      0.00%     57.13% # Class of executed instruction. (Count)
system.cpu.exec_context.thread_0.statExecutedInstType::SimdFloatCvt            0      0.00%     57.13% # Class of executed instruction. (Count)
system.cpu.exec_context.thread_0.statExecutedInstType::SimdFloatDiv            0      0.00%     57.13% # Class of executed instruction. (Count)
system.cpu.exec_context.thread_0.statExecutedInstType::SimdFloatMisc            0      0.00%     57.13% # Class of executed instruction. (Count)
system.cpu.exec_context.thread_0.statExecutedInstType::SimdFloatMult            0      0.00%     57.13% # Class of executed instruction. (Count)
system.cpu.exec_context.thread_0.statExecutedInstType::SimdFloatMultAcc            0      0.00%     57.13% # Class of executed instruction. (Count)
system.cpu.exec_context.thread_0.statExecutedInstType::SimdFloatSqrt            0      0.00%     57.13% # Class of executed instruction. (Count)
system.cpu.exec_context.thread_0.statExecutedInstType::SimdReduceAdd            0      0.00%     57.13% # Class of executed instruction. (Count)
system.cpu.exec_context.thread_0.statExecutedInstType::SimdReduceAlu            0      0.00%     57.13% # Class of executed instruction. (Count)
system.cpu.exec_context.thread_0.statExecutedInstType::SimdReduceCmp            0      0.00%     57.13% # Class of executed instruction. (Count)
system.cpu.exec_context.thread_0.statExecutedInstType::SimdFloatReduceAdd            0      0.00%     57.13% # Class of executed instruction. (Count)
system.cpu.exec_context.thread_0.statExecutedInstType::SimdFloatReduceCmp            0      0.00%     57.13% # Class of executed instruction. (Count)
system.cpu.exec_context.thread_0.statExecutedInstType::SimdAes            0      0.00%     57.13% # Class of executed instruction. (Count)
system.cpu.exec_context.thread_0.statExecutedInstType::SimdAesMix            0      0.00%     57.13% # Class of executed instruction. (Count)
system.cpu.exec_context.thread_0.statExecutedInstType::SimdSha1Hash            0      0.00%     57.13% # Class of executed instruction. (Count)
system.cpu.exec_context.thread_0.statExecutedInstType::SimdSha1Hash2            0      0.00%     57.13% # Class of executed instruction. (Count)
system.cpu.exec_context.thread_0.statExecutedInstType::SimdSha256Hash            0      0.00%     57.13% # Class of executed instruction. (Count)
system.cpu.exec_context.thread_0.statExecutedInstType::SimdSha256Hash2            0      0.00%     57.13% # Class of executed instruction. (Count)
system.cpu.exec_context.thread_0.statExecutedInstType::SimdShaSigma2            0      0.00%     57.13% # Class of executed instruction. (Count)
system.cpu.exec_context.thread_0.statExecutedInstType::SimdShaSigma3            0      0.00%     57.13% # Class of executed instruction. (Count)
system.cpu.exec_context.thread_0.statExecutedInstType::SimdPredAlu            0      0.00%     57.13% # Class of executed instruction. (Count)
system.cpu.exec_context.thread_0.statExecutedInstType::MemRead     22819343     32.45%     89.58% # Class of executed instruction. (Count)
system.cpu.exec_context.thread_0.statExecutedInstType::MemWrite      7325617     10.42%    100.00% # Class of executed instruction. (Count)
system.cpu.exec_context.thread_0.statExecutedInstType::FloatMemRead          128      0.00%    100.00% # Class of executed instruction. (Count)
system.cpu.exec_context.thread_0.statExecutedInstType::FloatMemWrite          561      0.00%    100.00% # Class of executed instruction. (Count)
system.cpu.exec_context.thread_0.statExecutedInstType::IprAccess            0      0.00%    100.00% # Class of executed instruction. (Count)
system.cpu.exec_context.thread_0.statExecutedInstType::InstPrefetch            0      0.00%    100.00% # Class of executed instruction. (Count)
system.cpu.exec_context.thread_0.statExecutedInstType::total     70314230                       # Class of executed instruction. (Count)
system.cpu.icache.demandHits::cpu.inst       52695520                       # number of demand (read+write) hits (Count)
system.cpu.icache.demandHits::total          52695520                       # number of demand (read+write) hits (Count)
system.cpu.icache.overallHits::cpu.inst      52695520                       # number of overall hits (Count)
system.cpu.icache.overallHits::total         52695520                       # number of overall hits (Count)
system.cpu.icache.demandMisses::cpu.inst          612                       # number of demand (read+write) misses (Count)
system.cpu.icache.demandMisses::total             612                       # number of demand (read+write) misses (Count)
system.cpu.icache.overallMisses::cpu.inst          612                       # number of overall misses (Count)
system.cpu.icache.overallMisses::total            612                       # number of overall misses (Count)
system.cpu.icache.demandMissLatency::cpu.inst     61845000                       # number of demand (read+write) miss ticks (Tick)
system.cpu.icache.demandMissLatency::total     61845000                       # number of demand (read+write) miss ticks (Tick)
system.cpu.icache.overallMissLatency::cpu.inst     61845000                       # number of overall miss ticks (Tick)
system.cpu.icache.overallMissLatency::total     61845000                       # number of overall miss ticks (Tick)
system.cpu.icache.demandAccesses::cpu.inst     52696132                       # number of demand (read+write) accesses (Count)
system.cpu.icache.demandAccesses::total      52696132                       # number of demand (read+write) accesses (Count)
system.cpu.icache.overallAccesses::cpu.inst     52696132                       # number of overall (read+write) accesses (Count)
system.cpu.icache.overallAccesses::total     52696132                       # number of overall (read+write) accesses (Count)
system.cpu.icache.demandMissRate::cpu.inst     0.000012                       # miss rate for demand accesses (Ratio)
system.cpu.icache.demandMissRate::total      0.000012                       # miss rate for demand accesses (Ratio)
system.cpu.icache.overallMissRate::cpu.inst     0.000012                       # miss rate for overall accesses (Ratio)
system.cpu.icache.overallMissRate::total     0.000012                       # miss rate for overall accesses (Ratio)
system.cpu.icache.demandAvgMissLatency::cpu.inst 101053.921569                       # average overall miss latency in ticks ((Tick/Count))
system.cpu.icache.demandAvgMissLatency::total 101053.921569                       # average overall miss latency in ticks ((Tick/Count))
system.cpu.icache.overallAvgMissLatency::cpu.inst 101053.921569                       # average overall miss latency ((Tick/Count))
system.cpu.icache.overallAvgMissLatency::total 101053.921569                       # average overall miss latency ((Tick/Count))
system.cpu.icache.blockedCycles::no_mshrs            0                       # number of cycles access was blocked (Cycle)
system.cpu.icache.blockedCycles::no_targets            0                       # number of cycles access was blocked (Cycle)
system.cpu.icache.blockedCauses::no_mshrs            0                       # number of times access was blocked (Count)
system.cpu.icache.blockedCauses::no_targets            0                       # number of times access was blocked (Count)
system.cpu.icache.avgBlocked::no_mshrs            nan                       # average number of cycles each access was blocked ((Cycle/Count))
system.cpu.icache.avgBlocked::no_targets          nan                       # average number of cycles each access was blocked ((Cycle/Count))
system.cpu.icache.demandMshrMisses::cpu.inst          612                       # number of demand (read+write) MSHR misses (Count)
system.cpu.icache.demandMshrMisses::total          612                       # number of demand (read+write) MSHR misses (Count)
system.cpu.icache.overallMshrMisses::cpu.inst          612                       # number of overall MSHR misses (Count)
system.cpu.icache.overallMshrMisses::total          612                       # number of overall MSHR misses (Count)
system.cpu.icache.demandMshrMissLatency::cpu.inst     60621000                       # number of demand (read+write) MSHR miss ticks (Tick)
system.cpu.icache.demandMshrMissLatency::total     60621000                       # number of demand (read+write) MSHR miss ticks (Tick)
system.cpu.icache.overallMshrMissLatency::cpu.inst     60621000                       # number of overall MSHR miss ticks (Tick)
system.cpu.icache.overallMshrMissLatency::total     60621000                       # number of overall MSHR miss ticks (Tick)
system.cpu.icache.demandMshrMissRate::cpu.inst     0.000012                       # mshr miss ratio for demand accesses (Ratio)
system.cpu.icache.demandMshrMissRate::total     0.000012                       # mshr miss ratio for demand accesses (Ratio)
system.cpu.icache.overallMshrMissRate::cpu.inst     0.000012                       # mshr miss ratio for overall accesses (Ratio)
system.cpu.icache.overallMshrMissRate::total     0.000012                       # mshr miss ratio for overall accesses (Ratio)
system.cpu.icache.demandAvgMshrMissLatency::cpu.inst 99053.921569                       # average overall mshr miss latency ((Tick/Count))
system.cpu.icache.demandAvgMshrMissLatency::total 99053.921569                       # average overall mshr miss latency ((Tick/Count))
system.cpu.icache.overallAvgMshrMissLatency::cpu.inst 99053.921569                       # average overall mshr miss latency ((Tick/Count))
system.cpu.icache.overallAvgMshrMissLatency::total 99053.921569                       # average overall mshr miss latency ((Tick/Count))
system.cpu.icache.replacements                    359                       # number of replacements (Count)
system.cpu.icache.ReadReq.hits::cpu.inst     52695520                       # number of ReadReq hits (Count)
system.cpu.icache.ReadReq.hits::total        52695520                       # number of ReadReq hits (Count)
system.cpu.icache.ReadReq.misses::cpu.inst          612                       # number of ReadReq misses (Count)
system.cpu.icache.ReadReq.misses::total           612                       # number of ReadReq misses (Count)
system.cpu.icache.ReadReq.missLatency::cpu.inst     61845000                       # number of ReadReq miss ticks (Tick)
system.cpu.icache.ReadReq.missLatency::total     61845000                       # number of ReadReq miss ticks (Tick)
system.cpu.icache.ReadReq.accesses::cpu.inst     52696132                       # number of ReadReq accesses(hits+misses) (Count)
system.cpu.icache.ReadReq.accesses::total     52696132                       # number of ReadReq accesses(hits+misses) (Count)
system.cpu.icache.ReadReq.missRate::cpu.inst     0.000012                       # miss rate for ReadReq accesses (Ratio)
system.cpu.icache.ReadReq.missRate::total     0.000012                       # miss rate for ReadReq accesses (Ratio)
system.cpu.icache.ReadReq.avgMissLatency::cpu.inst 101053.921569                       # average ReadReq miss latency ((Tick/Count))
system.cpu.icache.ReadReq.avgMissLatency::total 101053.921569                       # average ReadReq miss latency ((Tick/Count))
system.cpu.icache.ReadReq.mshrMisses::cpu.inst          612                       # number of ReadReq MSHR misses (Count)
system.cpu.icache.ReadReq.mshrMisses::total          612                       # number of ReadReq MSHR misses (Count)
system.cpu.icache.ReadReq.mshrMissLatency::cpu.inst     60621000                       # number of ReadReq MSHR miss ticks (Tick)
system.cpu.icache.ReadReq.mshrMissLatency::total     60621000                       # number of ReadReq MSHR miss ticks (Tick)
system.cpu.icache.ReadReq.mshrMissRate::cpu.inst     0.000012                       # mshr miss rate for ReadReq accesses (Ratio)
system.cpu.icache.ReadReq.mshrMissRate::total     0.000012                       # mshr miss rate for ReadReq accesses (Ratio)
system.cpu.icache.ReadReq.avgMshrMissLatency::cpu.inst 99053.921569                       # average ReadReq mshr miss latency ((Tick/Count))
system.cpu.icache.ReadReq.avgMshrMissLatency::total 99053.921569                       # average ReadReq mshr miss latency ((Tick/Count))
system.cpu.icache.power_state.pwrStateResidencyTicks::UNDEFINED 236600229000                       # Cumulative time (in ticks) in various power states (Tick)
system.cpu.icache.tags.tagsInUse           246.963519                       # Average ticks per tags in use ((Tick/Count))
system.cpu.icache.tags.totalRefs             52696132                       # Total number of references to valid blocks. (Count)
system.cpu.icache.tags.sampledRefs                612                       # Sample count of references to valid blocks. (Count)
system.cpu.icache.tags.avgRefs           86104.790850                       # Average number of references to valid blocks. ((Count/Count))
system.cpu.icache.tags.warmupTick              107000                       # The tick when the warmup percentage was hit. (Tick)
system.cpu.icache.tags.occupancies::cpu.inst   246.963519                       # Average occupied blocks per tick, per requestor ((Count/Tick))
system.cpu.icache.tags.avgOccs::cpu.inst     0.964701                       # Average percentage of cache occupancy ((Ratio/Tick))
system.cpu.icache.tags.avgOccs::total        0.964701                       # Average percentage of cache occupancy ((Ratio/Tick))
system.cpu.icache.tags.occupanciesTaskId::1024          253                       # Occupied blocks per task id (Count)
system.cpu.icache.tags.ageTaskId_1024::0           55                       # Occupied blocks per task id, per block age (Count)
system.cpu.icache.tags.ageTaskId_1024::1           83                       # Occupied blocks per task id, per block age (Count)
system.cpu.icache.tags.ageTaskId_1024::4          115                       # Occupied blocks per task id, per block age (Count)
system.cpu.icache.tags.ratioOccsTaskId::1024     0.988281                       # Ratio of occupied blocks and all blocks, per task id (Ratio)
system.cpu.icache.tags.tagAccesses          105392876                       # Number of tag accesses (Count)
system.cpu.icache.tags.dataAccesses         105392876                       # Number of data accesses (Count)
system.cpu.icache.tags.power_state.pwrStateResidencyTicks::UNDEFINED 236600229000                       # Cumulative time (in ticks) in various power states (Tick)
system.cpu.interrupts.clk_domain.clock          16000                       # Clock period in ticks (Tick)
system.cpu.mmu.dtb.rdAccesses                22819474                       # TLB accesses on read requests (Count)
system.cpu.mmu.dtb.wrAccesses                 7326178                       # TLB accesses on write requests (Count)
system.cpu.mmu.dtb.rdMisses                       430                       # TLB misses on read requests (Count)
system.cpu.mmu.dtb.wrMisses                     29121                       # TLB misses on write requests (Count)
system.cpu.mmu.dtb.walker.power_state.pwrStateResidencyTicks::UNDEFINED 236600229000                       # Cumulative time (in ticks) in various power states (Tick)
system.cpu.mmu.itb.rdAccesses                       0                       # TLB accesses on read requests (Count)
system.cpu.mmu.itb.wrAccesses                52696132                       # TLB accesses on write requests (Count)
system.cpu.mmu.itb.rdMisses                         0                       # TLB misses on read requests (Count)
system.cpu.mmu.itb.wrMisses                        69                       # TLB misses on write requests (Count)
system.cpu.mmu.itb.walker.power_state.pwrStateResidencyTicks::UNDEFINED 236600229000                       # Cumulative time (in ticks) in various power states (Tick)
system.cpu.power_state.pwrStateResidencyTicks::ON 236600229000                       # Cumulative time (in ticks) in various power states (Tick)
system.cpu.thread_0.numInsts                        0                       # Number of Instructions committed (Count)
system.cpu.thread_0.numOps                          0                       # Number of Ops committed (Count)
system.cpu.thread_0.numMemRefs                      0                       # Number of Memory References (Count)
system.cpu.workload.numSyscalls                    19                       # Number of system calls (Count)
system.l2bus.transDist::ReadResp                16523                       # Transaction distribution (Count)
system.l2bus.transDist::WritebackDirty        1354712                       # Transaction distribution (Count)
system.l2bus.transDist::CleanEvict              27586                       # Transaction distribution (Count)
system.l2bus.transDist::ReadExReq              700719                       # Transaction distribution (Count)
system.l2bus.transDist::ReadExResp             700719                       # Transaction distribution (Count)
system.l2bus.transDist::ReadSharedReq           16523                       # Transaction distribution (Count)
system.l2bus.pktCount_system.cpu.icache.mem_side_port::system.l2cache.cpu_side_port         1583                       # Packet count per connected requestor and responder (Count)
system.l2bus.pktCount_system.cpu.dcache.mem_side_port::system.l2cache.cpu_side_port      2148866                       # Packet count per connected requestor and responder (Count)
system.l2bus.pktCount::total                  2150449                       # Packet count per connected requestor and responder (Count)
system.l2bus.pktSize_system.cpu.icache.mem_side_port::system.l2cache.cpu_side_port        39168                       # Cumulative packet size per connected requestor and responder (Byte)
system.l2bus.pktSize_system.cpu.dcache.mem_side_port::system.l2cache.cpu_side_port     90710400                       # Cumulative packet size per connected requestor and responder (Byte)
system.l2bus.pktSize::total                  90749568                       # Cumulative packet size per connected requestor and responder (Byte)
system.l2bus.snoops                            666333                       # Total snoops (Count)
system.l2bus.snoopTraffic                    41855488                       # Total snoop traffic (Byte)
system.l2bus.snoopFanout::samples             1383575                       # Request fanout histogram (Count)
system.l2bus.snoopFanout::mean               0.000181                       # Request fanout histogram (Count)
system.l2bus.snoopFanout::stdev              0.013441                       # Request fanout histogram (Count)
system.l2bus.snoopFanout::underflows                0      0.00%      0.00% # Request fanout histogram (Count)
system.l2bus.snoopFanout::0                   1383325     99.98%     99.98% # Request fanout histogram (Count)
system.l2bus.snoopFanout::1                       250      0.02%    100.00% # Request fanout histogram (Count)
system.l2bus.snoopFanout::2                         0      0.00%    100.00% # Request fanout histogram (Count)
system.l2bus.snoopFanout::overflows                 0      0.00%    100.00% # Request fanout histogram (Count)
system.l2bus.snoopFanout::min_value                 0                       # Request fanout histogram (Count)
system.l2bus.snoopFanout::max_value                 1                       # Request fanout histogram (Count)
system.l2bus.snoopFanout::total               1383575                       # Request fanout histogram (Count)
system.l2bus.power_state.pwrStateResidencyTicks::UNDEFINED 236600229000                       # Cumulative time (in ticks) in various power states (Tick)
system.l2bus.reqLayer0.occupancy           2834647000                       # Layer occupancy (ticks) (Tick)
system.l2bus.reqLayer0.utilization                0.0                       # Layer utilization (Ratio)
system.l2bus.respLayer0.occupancy             1836000                       # Layer occupancy (ticks) (Tick)
system.l2bus.respLayer0.utilization               0.0                       # Layer utilization (Ratio)
system.l2bus.respLayer1.occupancy          2149890000                       # Layer occupancy (ticks) (Tick)
system.l2bus.respLayer1.utilization               0.0                       # Layer utilization (Ratio)
system.l2bus.snoop_filter.totRequests         1433207                       # Total number of requests made to the snoop filter. (Count)
system.l2bus.snoop_filter.hitSingleRequests       715965                       # Number of requests hitting in the snoop filter with a single holder of the requested data. (Count)
system.l2bus.snoop_filter.hitMultiRequests            0                       # Number of requests hitting in the snoop filter with multiple (>1) holders of the requested data. (Count)
system.l2bus.snoop_filter.totSnoops               250                       # Total number of snoops made to the snoop filter. (Count)
system.l2bus.snoop_filter.hitSingleSnoops          250                       # Number of snoops hitting in the snoop filter with a single holder of the requested data. (Count)
system.l2bus.snoop_filter.hitMultiSnoops            0                       # Number of snoops hitting in the snoop filter with multiple (>1) holders of the requested data. (Count)
system.l2cache.demandHits::cpu.inst                23                       # number of demand (read+write) hits (Count)
system.l2cache.demandHits::cpu.data             46790                       # number of demand (read+write) hits (Count)
system.l2cache.demandHits::total                46813                       # number of demand (read+write) hits (Count)
system.l2cache.overallHits::cpu.inst               23                       # number of overall hits (Count)
system.l2cache.overallHits::cpu.data            46790                       # number of overall hits (Count)
system.l2cache.overallHits::total               46813                       # number of overall hits (Count)
system.l2cache.demandMisses::cpu.inst             589                       # number of demand (read+write) misses (Count)
system.l2cache.demandMisses::cpu.data          669840                       # number of demand (read+write) misses (Count)
system.l2cache.demandMisses::total             670429                       # number of demand (read+write) misses (Count)
system.l2cache.overallMisses::cpu.inst            589                       # number of overall misses (Count)
system.l2cache.overallMisses::cpu.data         669840                       # number of overall misses (Count)
system.l2cache.overallMisses::total            670429                       # number of overall misses (Count)
system.l2cache.demandMissLatency::cpu.inst     58301000                       # number of demand (read+write) miss ticks (Tick)
system.l2cache.demandMissLatency::cpu.data  67724063000                       # number of demand (read+write) miss ticks (Tick)
system.l2cache.demandMissLatency::total   67782364000                       # number of demand (read+write) miss ticks (Tick)
system.l2cache.overallMissLatency::cpu.inst     58301000                       # number of overall miss ticks (Tick)
system.l2cache.overallMissLatency::cpu.data  67724063000                       # number of overall miss ticks (Tick)
system.l2cache.overallMissLatency::total  67782364000                       # number of overall miss ticks (Tick)
system.l2cache.demandAccesses::cpu.inst           612                       # number of demand (read+write) accesses (Count)
system.l2cache.demandAccesses::cpu.data        716630                       # number of demand (read+write) accesses (Count)
system.l2cache.demandAccesses::total           717242                       # number of demand (read+write) accesses (Count)
system.l2cache.overallAccesses::cpu.inst          612                       # number of overall (read+write) accesses (Count)
system.l2cache.overallAccesses::cpu.data       716630                       # number of overall (read+write) accesses (Count)
system.l2cache.overallAccesses::total          717242                       # number of overall (read+write) accesses (Count)
system.l2cache.demandMissRate::cpu.inst      0.962418                       # miss rate for demand accesses (Ratio)
system.l2cache.demandMissRate::cpu.data      0.934708                       # miss rate for demand accesses (Ratio)
system.l2cache.demandMissRate::total         0.934732                       # miss rate for demand accesses (Ratio)
system.l2cache.overallMissRate::cpu.inst     0.962418                       # miss rate for overall accesses (Ratio)
system.l2cache.overallMissRate::cpu.data     0.934708                       # miss rate for overall accesses (Ratio)
system.l2cache.overallMissRate::total        0.934732                       # miss rate for overall accesses (Ratio)
system.l2cache.demandAvgMissLatency::cpu.inst 98983.022071                       # average overall miss latency in ticks ((Tick/Count))
system.l2cache.demandAvgMissLatency::cpu.data 101104.835483                       # average overall miss latency in ticks ((Tick/Count))
system.l2cache.demandAvgMissLatency::total 101102.971381                       # average overall miss latency in ticks ((Tick/Count))
system.l2cache.overallAvgMissLatency::cpu.inst 98983.022071                       # average overall miss latency ((Tick/Count))
system.l2cache.overallAvgMissLatency::cpu.data 101104.835483                       # average overall miss latency ((Tick/Count))
system.l2cache.overallAvgMissLatency::total 101102.971381                       # average overall miss latency ((Tick/Count))
system.l2cache.blockedCycles::no_mshrs              0                       # number of cycles access was blocked (Cycle)
system.l2cache.blockedCycles::no_targets            0                       # number of cycles access was blocked (Cycle)
system.l2cache.blockedCauses::no_mshrs              0                       # number of times access was blocked (Count)
system.l2cache.blockedCauses::no_targets            0                       # number of times access was blocked (Count)
system.l2cache.avgBlocked::no_mshrs               nan                       # average number of cycles each access was blocked ((Cycle/Count))
system.l2cache.avgBlocked::no_targets             nan                       # average number of cycles each access was blocked ((Cycle/Count))
system.l2cache.writebacks::writebacks          653992                       # number of writebacks (Count)
system.l2cache.writebacks::total               653992                       # number of writebacks (Count)
system.l2cache.demandMshrMisses::cpu.inst          589                       # number of demand (read+write) MSHR misses (Count)
system.l2cache.demandMshrMisses::cpu.data       669840                       # number of demand (read+write) MSHR misses (Count)
system.l2cache.demandMshrMisses::total         670429                       # number of demand (read+write) MSHR misses (Count)
system.l2cache.overallMshrMisses::cpu.inst          589                       # number of overall MSHR misses (Count)
system.l2cache.overallMshrMisses::cpu.data       669840                       # number of overall MSHR misses (Count)
system.l2cache.overallMshrMisses::total        670429                       # number of overall MSHR misses (Count)
system.l2cache.demandMshrMissLatency::cpu.inst     46521000                       # number of demand (read+write) MSHR miss ticks (Tick)
system.l2cache.demandMshrMissLatency::cpu.data  54327263000                       # number of demand (read+write) MSHR miss ticks (Tick)
system.l2cache.demandMshrMissLatency::total  54373784000                       # number of demand (read+write) MSHR miss ticks (Tick)
system.l2cache.overallMshrMissLatency::cpu.inst     46521000                       # number of overall MSHR miss ticks (Tick)
system.l2cache.overallMshrMissLatency::cpu.data  54327263000                       # number of overall MSHR miss ticks (Tick)
system.l2cache.overallMshrMissLatency::total  54373784000                       # number of overall MSHR miss ticks (Tick)
system.l2cache.demandMshrMissRate::cpu.inst     0.962418                       # mshr miss ratio for demand accesses (Ratio)
system.l2cache.demandMshrMissRate::cpu.data     0.934708                       # mshr miss ratio for demand accesses (Ratio)
system.l2cache.demandMshrMissRate::total     0.934732                       # mshr miss ratio for demand accesses (Ratio)
system.l2cache.overallMshrMissRate::cpu.inst     0.962418                       # mshr miss ratio for overall accesses (Ratio)
system.l2cache.overallMshrMissRate::cpu.data     0.934708                       # mshr miss ratio for overall accesses (Ratio)
system.l2cache.overallMshrMissRate::total     0.934732                       # mshr miss ratio for overall accesses (Ratio)
system.l2cache.demandAvgMshrMissLatency::cpu.inst 78983.022071                       # average overall mshr miss latency ((Tick/Count))
system.l2cache.demandAvgMshrMissLatency::cpu.data 81104.835483                       # average overall mshr miss latency ((Tick/Count))
system.l2cache.demandAvgMshrMissLatency::total 81102.971381                       # average overall mshr miss latency ((Tick/Count))
system.l2cache.overallAvgMshrMissLatency::cpu.inst 78983.022071                       # average overall mshr miss latency ((Tick/Count))
system.l2cache.overallAvgMshrMissLatency::cpu.data 81104.835483                       # average overall mshr miss latency ((Tick/Count))
system.l2cache.overallAvgMshrMissLatency::total 81102.971381                       # average overall mshr miss latency ((Tick/Count))
system.l2cache.replacements                    666333                       # number of replacements (Count)
system.l2cache.CleanEvict.mshrMisses::writebacks          134                       # number of CleanEvict MSHR misses (Count)
system.l2cache.CleanEvict.mshrMisses::total          134                       # number of CleanEvict MSHR misses (Count)
system.l2cache.CleanEvict.mshrMissRate::writebacks          inf                       # mshr miss rate for CleanEvict accesses (Ratio)
system.l2cache.CleanEvict.mshrMissRate::total          inf                       # mshr miss rate for CleanEvict accesses (Ratio)
system.l2cache.ReadExReq.hits::cpu.data         46727                       # number of ReadExReq hits (Count)
system.l2cache.ReadExReq.hits::total            46727                       # number of ReadExReq hits (Count)
system.l2cache.ReadExReq.misses::cpu.data       653992                       # number of ReadExReq misses (Count)
system.l2cache.ReadExReq.misses::total         653992                       # number of ReadExReq misses (Count)
system.l2cache.ReadExReq.missLatency::cpu.data  65674495000                       # number of ReadExReq miss ticks (Tick)
system.l2cache.ReadExReq.missLatency::total  65674495000                       # number of ReadExReq miss ticks (Tick)
system.l2cache.ReadExReq.accesses::cpu.data       700719                       # number of ReadExReq accesses(hits+misses) (Count)
system.l2cache.ReadExReq.accesses::total       700719                       # number of ReadExReq accesses(hits+misses) (Count)
system.l2cache.ReadExReq.missRate::cpu.data     0.933316                       # miss rate for ReadExReq accesses (Ratio)
system.l2cache.ReadExReq.missRate::total     0.933316                       # miss rate for ReadExReq accesses (Ratio)
system.l2cache.ReadExReq.avgMissLatency::cpu.data 100420.945516                       # average ReadExReq miss latency ((Tick/Count))
system.l2cache.ReadExReq.avgMissLatency::total 100420.945516                       # average ReadExReq miss latency ((Tick/Count))
system.l2cache.ReadExReq.mshrMisses::cpu.data       653992                       # number of ReadExReq MSHR misses (Count)
system.l2cache.ReadExReq.mshrMisses::total       653992                       # number of ReadExReq MSHR misses (Count)
system.l2cache.ReadExReq.mshrMissLatency::cpu.data  52594655000                       # number of ReadExReq MSHR miss ticks (Tick)
system.l2cache.ReadExReq.mshrMissLatency::total  52594655000                       # number of ReadExReq MSHR miss ticks (Tick)
system.l2cache.ReadExReq.mshrMissRate::cpu.data     0.933316                       # mshr miss rate for ReadExReq accesses (Ratio)
system.l2cache.ReadExReq.mshrMissRate::total     0.933316                       # mshr miss rate for ReadExReq accesses (Ratio)
system.l2cache.ReadExReq.avgMshrMissLatency::cpu.data 80420.945516                       # average ReadExReq mshr miss latency ((Tick/Count))
system.l2cache.ReadExReq.avgMshrMissLatency::total 80420.945516                       # average ReadExReq mshr miss latency ((Tick/Count))
system.l2cache.ReadSharedReq.hits::cpu.inst           23                       # number of ReadSharedReq hits (Count)
system.l2cache.ReadSharedReq.hits::cpu.data           63                       # number of ReadSharedReq hits (Count)
system.l2cache.ReadSharedReq.hits::total           86                       # number of ReadSharedReq hits (Count)
system.l2cache.ReadSharedReq.misses::cpu.inst          589                       # number of ReadSharedReq misses (Count)
system.l2cache.ReadSharedReq.misses::cpu.data        15848                       # number of ReadSharedReq misses (Count)
system.l2cache.ReadSharedReq.misses::total        16437                       # number of ReadSharedReq misses (Count)
system.l2cache.ReadSharedReq.missLatency::cpu.inst     58301000                       # number of ReadSharedReq miss ticks (Tick)
system.l2cache.ReadSharedReq.missLatency::cpu.data   2049568000                       # number of ReadSharedReq miss ticks (Tick)
system.l2cache.ReadSharedReq.missLatency::total   2107869000                       # number of ReadSharedReq miss ticks (Tick)
system.l2cache.ReadSharedReq.accesses::cpu.inst          612                       # number of ReadSharedReq accesses(hits+misses) (Count)
system.l2cache.ReadSharedReq.accesses::cpu.data        15911                       # number of ReadSharedReq accesses(hits+misses) (Count)
system.l2cache.ReadSharedReq.accesses::total        16523                       # number of ReadSharedReq accesses(hits+misses) (Count)
system.l2cache.ReadSharedReq.missRate::cpu.inst     0.962418                       # miss rate for ReadSharedReq accesses (Ratio)
system.l2cache.ReadSharedReq.missRate::cpu.data     0.996040                       # miss rate for ReadSharedReq accesses (Ratio)
system.l2cache.ReadSharedReq.missRate::total     0.994795                       # miss rate for ReadSharedReq accesses (Ratio)
system.l2cache.ReadSharedReq.avgMissLatency::cpu.inst 98983.022071                       # average ReadSharedReq miss latency ((Tick/Count))
system.l2cache.ReadSharedReq.avgMissLatency::cpu.data 129326.602726                       # average ReadSharedReq miss latency ((Tick/Count))
system.l2cache.ReadSharedReq.avgMissLatency::total 128239.277240                       # average ReadSharedReq miss latency ((Tick/Count))
system.l2cache.ReadSharedReq.mshrMisses::cpu.inst          589                       # number of ReadSharedReq MSHR misses (Count)
system.l2cache.ReadSharedReq.mshrMisses::cpu.data        15848                       # number of ReadSharedReq MSHR misses (Count)
system.l2cache.ReadSharedReq.mshrMisses::total        16437                       # number of ReadSharedReq MSHR misses (Count)
system.l2cache.ReadSharedReq.mshrMissLatency::cpu.inst     46521000                       # number of ReadSharedReq MSHR miss ticks (Tick)
system.l2cache.ReadSharedReq.mshrMissLatency::cpu.data   1732608000                       # number of ReadSharedReq MSHR miss ticks (Tick)
system.l2cache.ReadSharedReq.mshrMissLatency::total   1779129000                       # number of ReadSharedReq MSHR miss ticks (Tick)
system.l2cache.ReadSharedReq.mshrMissRate::cpu.inst     0.962418                       # mshr miss rate for ReadSharedReq accesses (Ratio)
system.l2cache.ReadSharedReq.mshrMissRate::cpu.data     0.996040                       # mshr miss rate for ReadSharedReq accesses (Ratio)
system.l2cache.ReadSharedReq.mshrMissRate::total     0.994795                       # mshr miss rate for ReadSharedReq accesses (Ratio)
system.l2cache.ReadSharedReq.avgMshrMissLatency::cpu.inst 78983.022071                       # average ReadSharedReq mshr miss latency ((Tick/Count))
system.l2cache.ReadSharedReq.avgMshrMissLatency::cpu.data 109326.602726                       # average ReadSharedReq mshr miss latency ((Tick/Count))
system.l2cache.ReadSharedReq.avgMshrMissLatency::total 108239.277240                       # average ReadSharedReq mshr miss latency ((Tick/Count))
system.l2cache.WritebackDirty.hits::writebacks       700720                       # number of WritebackDirty hits (Count)
system.l2cache.WritebackDirty.hits::total       700720                       # number of WritebackDirty hits (Count)
system.l2cache.WritebackDirty.accesses::writebacks       700720                       # number of WritebackDirty accesses(hits+misses) (Count)
system.l2cache.WritebackDirty.accesses::total       700720                       # number of WritebackDirty accesses(hits+misses) (Count)
system.l2cache.power_state.pwrStateResidencyTicks::UNDEFINED 236600229000                       # Cumulative time (in ticks) in various power states (Tick)
system.l2cache.tags.tagsInUse             4028.909422                       # Average ticks per tags in use ((Tick/Count))
system.l2cache.tags.totalRefs                 1433073                       # Total number of references to valid blocks. (Count)
system.l2cache.tags.sampledRefs                670429                       # Sample count of references to valid blocks. (Count)
system.l2cache.tags.avgRefs                  2.137546                       # Average number of references to valid blocks. ((Count/Count))
system.l2cache.tags.warmupTick                  86000                       # The tick when the warmup percentage was hit. (Tick)
system.l2cache.tags.occupancies::cpu.inst    16.296049                       # Average occupied blocks per tick, per requestor ((Count/Tick))
system.l2cache.tags.occupancies::cpu.data  4012.613373                       # Average occupied blocks per tick, per requestor ((Count/Tick))
system.l2cache.tags.avgOccs::cpu.inst        0.003979                       # Average percentage of cache occupancy ((Ratio/Tick))
system.l2cache.tags.avgOccs::cpu.data        0.979642                       # Average percentage of cache occupancy ((Ratio/Tick))
system.l2cache.tags.avgOccs::total           0.983620                       # Average percentage of cache occupancy ((Ratio/Tick))
system.l2cache.tags.occupanciesTaskId::1024         4096                       # Occupied blocks per task id (Count)
system.l2cache.tags.ageTaskId_1024::0              76                       # Occupied blocks per task id, per block age (Count)
system.l2cache.tags.ageTaskId_1024::1             180                       # Occupied blocks per task id, per block age (Count)
system.l2cache.tags.ageTaskId_1024::2             348                       # Occupied blocks per task id, per block age (Count)
system.l2cache.tags.ageTaskId_1024::3            3355                       # Occupied blocks per task id, per block age (Count)
system.l2cache.tags.ageTaskId_1024::4             137                       # Occupied blocks per task id, per block age (Count)
system.l2cache.tags.ratioOccsTaskId::1024            1                       # Ratio of occupied blocks and all blocks, per task id (Ratio)
system.l2cache.tags.tagAccesses              12136085                       # Number of tag accesses (Count)
system.l2cache.tags.dataAccesses             12136085                       # Number of data accesses (Count)
system.l2cache.tags.power_state.pwrStateResidencyTicks::UNDEFINED 236600229000                       # Cumulative time (in ticks) in various power states (Tick)
system.mem_ctrl.avgPriority_writebacks::samples    653992.00                       # Average QoS priority value for accepted requests (Count)
system.mem_ctrl.avgPriority_cpu.inst::samples       589.00                       # Average QoS priority value for accepted requests (Count)
system.mem_ctrl.avgPriority_cpu.data::samples    669753.00                       # Average QoS priority value for accepted requests (Count)
system.mem_ctrl.priorityMinLatency       0.000000018750                       # per QoS priority minimum request to response latency (Second)
system.mem_ctrl.priorityMaxLatency       0.004630536500                       # per QoS priority maximum request to response latency (Second)
system.mem_ctrl.numReadWriteTurnArounds         37571                       # Number of turnarounds from READ to WRITE (Count)
system.mem_ctrl.numWriteReadTurnArounds         37571                       # Number of turnarounds from WRITE to READ (Count)
system.mem_ctrl.numStayReadState              2032334                       # Number of times bus staying in READ state (Count)
system.mem_ctrl.numStayWriteState              617401                       # Number of times bus staying in WRITE state (Count)
system.mem_ctrl.readReqs                       670429                       # Number of read requests accepted (Count)
system.mem_ctrl.writeReqs                      653992                       # Number of write requests accepted (Count)
system.mem_ctrl.readBursts                     670429                       # Number of controller read bursts, including those serviced by the write queue (Count)
system.mem_ctrl.writeBursts                    653992                       # Number of controller write bursts, including those merged in the write queue (Count)
system.mem_ctrl.servicedByWrQ                      87                       # Number of controller read bursts serviced by the write queue (Count)
system.mem_ctrl.mergedWrBursts                      0                       # Number of controller write bursts merged with an existing one (Count)
system.mem_ctrl.neitherReadNorWriteReqs             0                       # Number of requests that are neither read nor write (Count)
system.mem_ctrl.avgRdQLen                        1.00                       # Average read queue length when enqueuing ((Count/Tick))
system.mem_ctrl.avgWrQLen                       24.28                       # Average write queue length when enqueuing ((Count/Tick))
system.mem_ctrl.numRdRetry                          0                       # Number of times read queue was full causing retry (Count)
system.mem_ctrl.numWrRetry                          0                       # Number of times write queue was full causing retry (Count)
system.mem_ctrl.readPktSize::0                      0                       # Read request sizes (log2) (Count)
system.mem_ctrl.readPktSize::1                      0                       # Read request sizes (log2) (Count)
system.mem_ctrl.readPktSize::2                      0                       # Read request sizes (log2) (Count)
system.mem_ctrl.readPktSize::3                      0                       # Read request sizes (log2) (Count)
system.mem_ctrl.readPktSize::4                      0                       # Read request sizes (log2) (Count)
system.mem_ctrl.readPktSize::5                      0                       # Read request sizes (log2) (Count)
system.mem_ctrl.readPktSize::6                 670429                       # Read request sizes (log2) (Count)
system.mem_ctrl.writePktSize::0                     0                       # Write request sizes (log2) (Count)
system.mem_ctrl.writePktSize::1                     0                       # Write request sizes (log2) (Count)
system.mem_ctrl.writePktSize::2                     0                       # Write request sizes (log2) (Count)
system.mem_ctrl.writePktSize::3                     0                       # Write request sizes (log2) (Count)
system.mem_ctrl.writePktSize::4                     0                       # Write request sizes (log2) (Count)
system.mem_ctrl.writePktSize::5                     0                       # Write request sizes (log2) (Count)
system.mem_ctrl.writePktSize::6                653992                       # Write request sizes (log2) (Count)
system.mem_ctrl.rdQLenPdf::0                   670342                       # What read queue length does an incoming req see (Count)
system.mem_ctrl.rdQLenPdf::1                        0                       # What read queue length does an incoming req see (Count)
system.mem_ctrl.rdQLenPdf::2                        0                       # What read queue length does an incoming req see (Count)
system.mem_ctrl.rdQLenPdf::3                        0                       # What read queue length does an incoming req see (Count)
system.mem_ctrl.rdQLenPdf::4                        0                       # What read queue length does an incoming req see (Count)
system.mem_ctrl.rdQLenPdf::5                        0                       # What read queue length does an incoming req see (Count)
system.mem_ctrl.rdQLenPdf::6                        0                       # What read queue length does an incoming req see (Count)
system.mem_ctrl.rdQLenPdf::7                        0                       # What read queue length does an incoming req see (Count)
system.mem_ctrl.rdQLenPdf::8                        0                       # What read queue length does an incoming req see (Count)
system.mem_ctrl.rdQLenPdf::9                        0                       # What read queue length does an incoming req see (Count)
system.mem_ctrl.rdQLenPdf::10                       0                       # What read queue length does an incoming req see (Count)
system.mem_ctrl.rdQLenPdf::11                       0                       # What read queue length does an incoming req see (Count)
system.mem_ctrl.rdQLenPdf::12                       0                       # What read queue length does an incoming req see (Count)
system.mem_ctrl.rdQLenPdf::13                       0                       # What read queue length does an incoming req see (Count)
system.mem_ctrl.rdQLenPdf::14                       0                       # What read queue length does an incoming req see (Count)
system.mem_ctrl.rdQLenPdf::15                       0                       # What read queue length does an incoming req see (Count)
system.mem_ctrl.rdQLenPdf::16                       0                       # What read queue length does an incoming req see (Count)
system.mem_ctrl.rdQLenPdf::17                       0                       # What read queue length does an incoming req see (Count)
system.mem_ctrl.rdQLenPdf::18                       0                       # What read queue length does an incoming req see (Count)
system.mem_ctrl.rdQLenPdf::19                       0                       # What read queue length does an incoming req see (Count)
system.mem_ctrl.rdQLenPdf::20                       0                       # What read queue length does an incoming req see (Count)
system.mem_ctrl.rdQLenPdf::21                       0                       # What read queue length does an incoming req see (Count)
system.mem_ctrl.rdQLenPdf::22                       0                       # What read queue length does an incoming req see (Count)
system.mem_ctrl.rdQLenPdf::23                       0                       # What read queue length does an incoming req see (Count)
system.mem_ctrl.rdQLenPdf::24                       0                       # What read queue length does an incoming req see (Count)
system.mem_ctrl.rdQLenPdf::25                       0                       # What read queue length does an incoming req see (Count)
system.mem_ctrl.rdQLenPdf::26                       0                       # What read queue length does an incoming req see (Count)
system.mem_ctrl.rdQLenPdf::27                       0                       # What read queue length does an incoming req see (Count)
system.mem_ctrl.rdQLenPdf::28                       0                       # What read queue length does an incoming req see (Count)
system.mem_ctrl.rdQLenPdf::29                       0                       # What read queue length does an incoming req see (Count)
system.mem_ctrl.rdQLenPdf::30                       0                       # What read queue length does an incoming req see (Count)
system.mem_ctrl.rdQLenPdf::31                       0                       # What read queue length does an incoming req see (Count)
system.mem_ctrl.wrQLenPdf::0                        1                       # What write queue length does an incoming req see (Count)
system.mem_ctrl.wrQLenPdf::1                        1                       # What write queue length does an incoming req see (Count)
system.mem_ctrl.wrQLenPdf::2                        1                       # What write queue length does an incoming req see (Count)
system.mem_ctrl.wrQLenPdf::3                        1                       # What write queue length does an incoming req see (Count)
system.mem_ctrl.wrQLenPdf::4                        1                       # What write queue length does an incoming req see (Count)
system.mem_ctrl.wrQLenPdf::5                        1                       # What write queue length does an incoming req see (Count)
system.mem_ctrl.wrQLenPdf::6                        1                       # What write queue length does an incoming req see (Count)
system.mem_ctrl.wrQLenPdf::7                        1                       # What write queue length does an incoming req see (Count)
system.mem_ctrl.wrQLenPdf::8                        1                       # What write queue length does an incoming req see (Count)
system.mem_ctrl.wrQLenPdf::9                        1                       # What write queue length does an incoming req see (Count)
system.mem_ctrl.wrQLenPdf::10                       1                       # What write queue length does an incoming req see (Count)
system.mem_ctrl.wrQLenPdf::11                       1                       # What write queue length does an incoming req see (Count)
system.mem_ctrl.wrQLenPdf::12                       1                       # What write queue length does an incoming req see (Count)
system.mem_ctrl.wrQLenPdf::13                       1                       # What write queue length does an incoming req see (Count)
system.mem_ctrl.wrQLenPdf::14                       1                       # What write queue length does an incoming req see (Count)
system.mem_ctrl.wrQLenPdf::15                   21601                       # What write queue length does an incoming req see (Count)
system.mem_ctrl.wrQLenPdf::16                   31145                       # What write queue length does an incoming req see (Count)
system.mem_ctrl.wrQLenPdf::17                   37581                       # What write queue length does an incoming req see (Count)
system.mem_ctrl.wrQLenPdf::18                   37577                       # What write queue length does an incoming req see (Count)
system.mem_ctrl.wrQLenPdf::19                   37575                       # What write queue length does an incoming req see (Count)
system.mem_ctrl.wrQLenPdf::20                   37573                       # What write queue length does an incoming req see (Count)
system.mem_ctrl.wrQLenPdf::21                   37577                       # What write queue length does an incoming req see (Count)
system.mem_ctrl.wrQLenPdf::22                   37575                       # What write queue length does an incoming req see (Count)
system.mem_ctrl.wrQLenPdf::23                   37630                       # What write queue length does an incoming req see (Count)
system.mem_ctrl.wrQLenPdf::24                   37572                       # What write queue length does an incoming req see (Count)
system.mem_ctrl.wrQLenPdf::25                   37572                       # What write queue length does an incoming req see (Count)
system.mem_ctrl.wrQLenPdf::26                   37572                       # What write queue length does an incoming req see (Count)
system.mem_ctrl.wrQLenPdf::27                   37572                       # What write queue length does an incoming req see (Count)
system.mem_ctrl.wrQLenPdf::28                   37571                       # What write queue length does an incoming req see (Count)
system.mem_ctrl.wrQLenPdf::29                   37571                       # What write queue length does an incoming req see (Count)
system.mem_ctrl.wrQLenPdf::30                   37571                       # What write queue length does an incoming req see (Count)
system.mem_ctrl.wrQLenPdf::31                   37571                       # What write queue length does an incoming req see (Count)
[...]
system.mem_ctrl.dram.bytesWritten::total     41855488                       # Number of bytes written to this memory (Byte)
system.mem_ctrl.dram.numReads::cpu.inst           589                       # Number of read requests responded to by this memory (Count)
system.mem_ctrl.dram.numReads::cpu.data        669840                       # Number of read requests responded to by this memory (Count)
system.mem_ctrl.dram.numReads::total           670429                       # Number of read requests responded to by this memory (Count)
system.mem_ctrl.dram.numWrites::writebacks       653992                       # Number of write requests responded to by this memory (Count)
system.mem_ctrl.dram.numWrites::total          653992                       # Number of write requests responded to by this memory (Count)
system.mem_ctrl.dram.bwRead::cpu.inst          159324                       # Total read bandwidth from this memory ((Byte/Second))
system.mem_ctrl.dram.bwRead::cpu.data       181190695                       # Total read bandwidth from this memory ((Byte/Second))
system.mem_ctrl.dram.bwRead::total          181350019                       # Total read bandwidth from this memory ((Byte/Second))
system.mem_ctrl.dram.bwInstRead::cpu.inst       159324                       # Instruction read bandwidth from this memory ((Byte/Second))
system.mem_ctrl.dram.bwInstRead::total         159324                       # Instruction read bandwidth from this memory ((Byte/Second))
system.mem_ctrl.dram.bwWrite::writebacks    176903836                       # Write bandwidth from this memory ((Byte/Second))
system.mem_ctrl.dram.bwWrite::total         176903836                       # Write bandwidth from this memory ((Byte/Second))
system.mem_ctrl.dram.bwTotal::writebacks    176903836                       # Total bandwidth to/from this memory ((Byte/Second))
system.mem_ctrl.dram.bwTotal::cpu.inst         159324                       # Total bandwidth to/from this memory ((Byte/Second))
system.mem_ctrl.dram.bwTotal::cpu.data      181190695                       # Total bandwidth to/from this memory ((Byte/Second))
system.mem_ctrl.dram.bwTotal::total         358253854                       # Total bandwidth to/from this memory ((Byte/Second))
system.mem_ctrl.dram.readBursts                670342                       # Number of DRAM read bursts (Count)
system.mem_ctrl.dram.writeBursts               653964                       # Number of DRAM write bursts (Count)
system.mem_ctrl.dram.perBankRdBursts::0         44308                       # Per bank write bursts (Count)
system.mem_ctrl.dram.perBankRdBursts::1         44488                       # Per bank write bursts (Count)
system.mem_ctrl.dram.perBankRdBursts::2         44688                       # Per bank write bursts (Count)
system.mem_ctrl.dram.perBankRdBursts::3         39159                       # Per bank write bursts (Count)
system.mem_ctrl.dram.perBankRdBursts::4         38809                       # Per bank write bursts (Count)
system.mem_ctrl.dram.perBankRdBursts::5         38868                       # Per bank write bursts (Count)
system.mem_ctrl.dram.perBankRdBursts::6         39115                       # Per bank write bursts (Count)
system.mem_ctrl.dram.perBankRdBursts::7         39056                       # Per bank write bursts (Count)
system.mem_ctrl.dram.perBankRdBursts::8         39080                       # Per bank write bursts (Count)
system.mem_ctrl.dram.perBankRdBursts::9         41688                       # Per bank write bursts (Count)
system.mem_ctrl.dram.perBankRdBursts::10        42916                       # Per bank write bursts (Count)
system.mem_ctrl.dram.perBankRdBursts::11        43103                       # Per bank write bursts (Count)
system.mem_ctrl.dram.perBankRdBursts::12        43366                       # Per bank write bursts (Count)
system.mem_ctrl.dram.perBankRdBursts::13        43737                       # Per bank write bursts (Count)
system.mem_ctrl.dram.perBankRdBursts::14        44026                       # Per bank write bursts (Count)
system.mem_ctrl.dram.perBankRdBursts::15        43935                       # Per bank write bursts (Count)
system.mem_ctrl.dram.perBankWrBursts::0         43194                       # Per bank write bursts (Count)
system.mem_ctrl.dram.perBankWrBursts::1         43371                       # Per bank write bursts (Count)
system.mem_ctrl.dram.perBankWrBursts::2         43598                       # Per bank write bursts (Count)
system.mem_ctrl.dram.perBankWrBursts::3         38237                       # Per bank write bursts (Count)
system.mem_ctrl.dram.perBankWrBursts::4         37904                       # Per bank write bursts (Count)
system.mem_ctrl.dram.perBankWrBursts::5         37944                       # Per bank write bursts (Count)
system.mem_ctrl.dram.perBankWrBursts::6         38186                       # Per bank write bursts (Count)
system.mem_ctrl.dram.perBankWrBursts::7         38106                       # Per bank write bursts (Count)
system.mem_ctrl.dram.perBankWrBursts::8         38174                       # Per bank write bursts (Count)
system.mem_ctrl.dram.perBankWrBursts::9         40568                       # Per bank write bursts (Count)
system.mem_ctrl.dram.perBankWrBursts::10        41810                       # Per bank write bursts (Count)
system.mem_ctrl.dram.perBankWrBursts::11        42053                       # Per bank write bursts (Count)
system.mem_ctrl.dram.perBankWrBursts::12        42304                       # Per bank write bursts (Count)
system.mem_ctrl.dram.perBankWrBursts::13        42713                       # Per bank write bursts (Count)
system.mem_ctrl.dram.perBankWrBursts::14        42956                       # Per bank write bursts (Count)
system.mem_ctrl.dram.perBankWrBursts::15        42846                       # Per bank write bursts (Count)
system.mem_ctrl.dram.totQLat               7427902000                       # Total ticks spent queuing (Tick)
system.mem_ctrl.dram.totBusLat             3351710000                       # Total ticks spent in databus transfers (Tick)
system.mem_ctrl.dram.totMemAccLat         19996814500                       # Total ticks spent from burst creation until serviced by the DRAM (Tick)
system.mem_ctrl.dram.avgQLat                 11080.76                       # Average queueing delay per DRAM burst ((Tick/Count))
system.mem_ctrl.dram.avgBusLat                5000.00                       # Average bus latency per DRAM burst ((Tick/Count))
system.mem_ctrl.dram.avgMemAccLat            29830.76                       # Average memory access latency per DRAM burst ((Tick/Count))
system.mem_ctrl.dram.readRowHits               587570                       # Number of row buffer hits during reads (Count)
system.mem_ctrl.dram.writeRowHits              511765                       # Number of row buffer hits during writes (Count)
system.mem_ctrl.dram.readRowHitRate             87.65                       # Row buffer hit rate for reads (Ratio)
system.mem_ctrl.dram.writeRowHitRate            78.26                       # Row buffer hit rate for writes (Ratio)
system.mem_ctrl.dram.bytesPerActivate::samples       224962                       # Bytes accessed per row activation (Byte)
system.mem_ctrl.dram.bytesPerActivate::mean   376.745157                       # Bytes accessed per row activation (Byte)
system.mem_ctrl.dram.bytesPerActivate::gmean   228.785753                       # Bytes accessed per row activation (Byte)
system.mem_ctrl.dram.bytesPerActivate::stdev   358.974150                       # Bytes accessed per row activation (Byte)
system.mem_ctrl.dram.bytesPerActivate::0-127        57644     25.62%     25.62% # Bytes accessed per row activation (Byte)
system.mem_ctrl.dram.bytesPerActivate::128-255        66767     29.68%     55.30% # Bytes accessed per row activation (Byte)
system.mem_ctrl.dram.bytesPerActivate::256-383        19530      8.68%     63.98% # Bytes accessed per row activation (Byte)
system.mem_ctrl.dram.bytesPerActivate::384-511        13727      6.10%     70.09% # Bytes accessed per row activation (Byte)
system.mem_ctrl.dram.bytesPerActivate::512-639         9670      4.30%     74.39% # Bytes accessed per row activation (Byte)
system.mem_ctrl.dram.bytesPerActivate::640-767         7541      3.35%     77.74% # Bytes accessed per row activation (Byte)
system.mem_ctrl.dram.bytesPerActivate::768-895         6674      2.97%     80.70% # Bytes accessed per row activation (Byte)
system.mem_ctrl.dram.bytesPerActivate::896-1023         5186      2.31%     83.01% # Bytes accessed per row activation (Byte)
system.mem_ctrl.dram.bytesPerActivate::1024-1151        38223     16.99%    100.00% # Bytes accessed per row activation (Byte)
system.mem_ctrl.dram.bytesPerActivate::total       224962                       # Bytes accessed per row activation (Byte)
system.mem_ctrl.dram.bytesRead               42901888                       # Total bytes read (Byte)
system.mem_ctrl.dram.bytesWritten            41853696                       # Total bytes written (Byte)
system.mem_ctrl.dram.avgRdBW               181.326486                       # Average DRAM read bandwidth in MiBytes/s ((Byte/Second))
system.mem_ctrl.dram.avgWrBW               176.896262                       # Average DRAM write bandwidth in MiBytes/s ((Byte/Second))
system.mem_ctrl.dram.peakBW                  12800.00                       # Theoretical peak bandwidth in MiByte/s ((Byte/Second))
system.mem_ctrl.dram.busUtil                     2.80                       # Data bus utilization in percentage (Ratio)
system.mem_ctrl.dram.busUtilRead                 1.42                       # Data bus utilization in percentage for reads (Ratio)
system.mem_ctrl.dram.busUtilWrite                1.38                       # Data bus utilization in percentage for writes (Ratio)
system.mem_ctrl.dram.pageHitRate                83.01                       # Row buffer hit rate, read and write combined (Ratio)
system.mem_ctrl.dram.power_state.pwrStateResidencyTicks::UNDEFINED 236600229000                       # Cumulative time (in ticks) in various power states (Tick)
system.mem_ctrl.dram.rank0.actEnergy        790305180                       # Energy for activate commands per rank (pJ) (Joule)
system.mem_ctrl.dram.rank0.preEnergy        420034395                       # Energy for precharge commands per rank (pJ) (Joule)
system.mem_ctrl.dram.rank0.readEnergy      2345425740                       # Energy for read commands per rank (pJ) (Joule)
system.mem_ctrl.dram.rank0.writeEnergy     1673218800                       # Energy for write commands per rank (pJ) (Joule)
system.mem_ctrl.dram.rank0.refreshEnergy 18676451040.000004                       # Energy for refresh commands per rank (pJ) (Joule)
system.mem_ctrl.dram.rank0.actBackEnergy  64766898660                       # Energy for active background per rank (pJ) (Joule)
system.mem_ctrl.dram.rank0.preBackEnergy  36313942080                       # Energy for precharge background per rank (pJ) (Joule)
system.mem_ctrl.dram.rank0.actPowerDownEnergy            0                       # Energy for active power-down per rank (pJ) (Joule)
system.mem_ctrl.dram.rank0.prePowerDownEnergy            0                       # Energy for precharge power-down per rank (pJ) (Joule)
system.mem_ctrl.dram.rank0.selfRefreshEnergy            0                       # Energy for self refresh per rank (pJ) (Joule)
system.mem_ctrl.dram.rank0.totalEnergy   124986275895                       # Total energy per rank (pJ) (Joule)
system.mem_ctrl.dram.rank0.averagePower    528.259319                       # Core power per rank (mW) (Watt)
system.mem_ctrl.dram.rank0.totalIdleTime            0                       # Total Idle time Per DRAM Rank (Tick)
system.mem_ctrl.dram.rank0.pwrStateTime::IDLE  93630192000                       # Time in different power states (Tick)
system.mem_ctrl.dram.rank0.pwrStateTime::REF   7900360000                       # Time in different power states (Tick)
system.mem_ctrl.dram.rank0.pwrStateTime::SREF            0                       # Time in different power states (Tick)
system.mem_ctrl.dram.rank0.pwrStateTime::PRE_PDN            0                       # Time in different power states (Tick)
system.mem_ctrl.dram.rank0.pwrStateTime::ACT 135069677000                       # Time in different power states (Tick)
system.mem_ctrl.dram.rank0.pwrStateTime::ACT_PDN            0                       # Time in different power states (Tick)
system.mem_ctrl.dram.rank1.actEnergy        815987760                       # Energy for activate commands per rank (pJ) (Joule)
system.mem_ctrl.dram.rank1.preEnergy        433696395                       # Energy for precharge commands per rank (pJ) (Joule)
system.mem_ctrl.dram.rank1.readEnergy      2440816140                       # Energy for read commands per rank (pJ) (Joule)
system.mem_ctrl.dram.rank1.writeEnergy     1740473280                       # Energy for write commands per rank (pJ) (Joule)
system.mem_ctrl.dram.rank1.refreshEnergy 18676451040.000004                       # Energy for refresh commands per rank (pJ) (Joule)
system.mem_ctrl.dram.rank1.actBackEnergy  67304471970                       # Energy for active background per rank (pJ) (Joule)
system.mem_ctrl.dram.rank1.preBackEnergy  34177038240                       # Energy for precharge background per rank (pJ) (Joule)
system.mem_ctrl.dram.rank1.actPowerDownEnergy            0                       # Energy for active power-down per rank (pJ) (Joule)
system.mem_ctrl.dram.rank1.prePowerDownEnergy            0                       # Energy for precharge power-down per rank (pJ) (Joule)
system.mem_ctrl.dram.rank1.selfRefreshEnergy            0                       # Energy for self refresh per rank (pJ) (Joule)
system.mem_ctrl.dram.rank1.totalEnergy   125588934825                       # Total energy per rank (pJ) (Joule)
system.mem_ctrl.dram.rank1.averagePower    530.806480                       # Core power per rank (mW) (Watt)
system.mem_ctrl.dram.rank1.totalIdleTime            0                       # Total Idle time Per DRAM Rank (Tick)
system.mem_ctrl.dram.rank1.pwrStateTime::IDLE  88040222500                       # Time in different power states (Tick)
system.mem_ctrl.dram.rank1.pwrStateTime::REF   7900360000                       # Time in different power states (Tick)
system.mem_ctrl.dram.rank1.pwrStateTime::SREF            0                       # Time in different power states (Tick)
system.mem_ctrl.dram.rank1.pwrStateTime::PRE_PDN            0                       # Time in different power states (Tick)
system.mem_ctrl.dram.rank1.pwrStateTime::ACT 140659646500                       # Time in different power states (Tick)
system.mem_ctrl.dram.rank1.pwrStateTime::ACT_PDN            0                       # Time in different power states (Tick)
system.mem_ctrl.power_state.pwrStateResidencyTicks::UNDEFINED 236600229000                       # Cumulative time (in ticks) in various power states (Tick)
system.membus.transDist::ReadResp               16437                       # Transaction distribution (Count)
system.membus.transDist::WritebackDirty        653992                       # Transaction distribution (Count)
system.membus.transDist::CleanEvict             12224                       # Transaction distribution (Count)
system.membus.transDist::ReadExReq             653992                       # Transaction distribution (Count)
system.membus.transDist::ReadExResp            653992                       # Transaction distribution (Count)
system.membus.transDist::ReadSharedReq          16437                       # Transaction distribution (Count)
system.membus.pktCount_system.l2cache.mem_side_port::system.mem_ctrl.port      2007074                       # Packet count per connected requestor and responder (Count)
system.membus.pktCount_system.l2cache.mem_side_port::total      2007074                       # Packet count per connected requestor and responder (Count)
system.membus.pktCount::total                 2007074                       # Packet count per connected requestor and responder (Count)
system.membus.pktSize_system.l2cache.mem_side_port::system.mem_ctrl.port     84762944                       # Cumulative packet size per connected requestor and responder (Byte)
system.membus.pktSize_system.l2cache.mem_side_port::total     84762944                       # Cumulative packet size per connected requestor and responder (Byte)
system.membus.pktSize::total                 84762944                       # Cumulative packet size per connected requestor and responder (Byte)
system.membus.snoops                                0                       # Total snoops (Count)
system.membus.snoopTraffic                          0                       # Total snoop traffic (Byte)
system.membus.snoopFanout::samples             670429                       # Request fanout histogram (Count)
system.membus.snoopFanout::mean                     0                       # Request fanout histogram (Count)
system.membus.snoopFanout::stdev                    0                       # Request fanout histogram (Count)
system.membus.snoopFanout::underflows               0      0.00%      0.00% # Request fanout histogram (Count)
system.membus.snoopFanout::0                   670429    100.00%    100.00% # Request fanout histogram (Count)
system.membus.snoopFanout::1                        0      0.00%    100.00% # Request fanout histogram (Count)
system.membus.snoopFanout::overflows                0      0.00%    100.00% # Request fanout histogram (Count)
system.membus.snoopFanout::min_value                0                       # Request fanout histogram (Count)
system.membus.snoopFanout::max_value                0                       # Request fanout histogram (Count)
system.membus.snoopFanout::total               670429                       # Request fanout histogram (Count)
system.membus.power_state.pwrStateResidencyTicks::UNDEFINED 236600229000                       # Cumulative time (in ticks) in various power states (Tick)
system.membus.reqLayer2.occupancy          3952613000                       # Layer occupancy (ticks) (Tick)
system.membus.reqLayer2.utilization               0.0                       # Layer utilization (Ratio)
system.membus.respLayer0.occupancy         3538105500                       # Layer occupancy (ticks) (Tick)
system.membus.respLayer0.utilization              0.0                       # Layer utilization (Ratio)
system.membus.snoop_filter.totRequests        1336645                       # Total number of requests made to the snoop filter. (Count)
system.membus.snoop_filter.hitSingleRequests       666216                       # Number of requests hitting in the snoop filter with a single holder of the requested data. (Count)
system.membus.snoop_filter.hitMultiRequests            0                       # Number of requests hitting in the snoop filter with multiple (>1) holders of the requested data. (Count)
system.membus.snoop_filter.totSnoops                0                       # Total number of snoops made to the snoop filter. (Count)
system.membus.snoop_filter.hitSingleSnoops            0                       # Number of snoops hitting in the snoop filter with a single holder of the requested data. (Count)
system.membus.snoop_filter.hitMultiSnoops            0                       # Number of snoops hitting in the snoop filter with multiple (>1) holders of the requested data. (Count)
system.workload.inst.arm                            0                       # number of arm instructions executed (Count)
system.workload.inst.quiesce                        0                       # number of quiesce instructions executed (Count)

---------- End Simulation Statistics   ----------
